[TITLE]
Scenario: Base 
Date: 6/26/2019 2:45:30 PM 

[JUNCTIONS]
;ID              	Elev        	Demand      	Pattern         
 275             	0               0           	                	;
 273             	0               0           	                	;
 271             	0               0           	                	;
 269             	0               0           	                	;
 267             	0               0           	                	;
 265             	0               0           	                	;
 263             	0               0           	                	;
 261             	0               0           	                	;
 259             	0               0           	                	;
 257             	0               0           	                	;
 255             	0               40.39       	                   	;
 253             	0               54.52       	                   	;
 251             	0               24.16       	                   	;
 249             	0               0           	                   	;
 247             	0               70.38       	                   	;
 243             	0               4.34        	                   	;
 241             	0               0           	                   	;
 239             	0               44.61       	                   	;
 237             	0               15.61       	                   	;
 231             	0               16.48       	                   	;
 229             	0               64.18       	                   	;
 225             	0               22.8        	                   	;
 219             	0               41.32       	                   	;
 217             	0               24.22       	                   	;
 215             	0               92.19       	                   	;
 213             	0               13.94       	                   	;
 211             	0               8.67        	                   	;
 209             	0               0.87        	                   	;
 208             	0               0           	                   	;
 207             	0               69.39       	                   	;
 206             	0               0           	                   	;
 205             	0               65.36       	                   	;
 204             	0               0           	                   	;
 203             	0               1           	                   	;
 201             	0               44.61       	                   	;
 199             	0               119.32      	                   	;
 197             	0               17.04       	                   	;
 195             	0               0           	                   	;
 193             	0               71.31       	                   	;
 191             	0               81.9        	                   	;
 189             	0               107.92      	                   	;
 187             	0               0           	                   	;
 185             	0               25.65       	                   	;
 184             	0               0           	                   	;
 183             	0               0           	                   	;
 181             	0               0           	                   	;
 179             	0               0           	                   	;
 173             	0               0           	                   	;
 171             	0               39.34       	                   	;
 169             	0               0           	                   	;
 167             	0               14.56       	                   	;
 166             	0               2.6         	                   	;
 164             	0               0           	                   	;
 163             	0               9.42        	                   	;
 161             	0               15.8        	                   	;
 159             	0               41.32       	                   	;
 157             	0               51.79       	                   	;
 153             	0               44.17       	                   	;
 151             	0               144.48      	                   	;
 149             	0               27.07       	                   	;
 147             	0               8.55        	                   	;
 145             	0               27.63       	                   	;
 143             	0               6.2         	                   	;
 141             	0               9.85        	                   	;
 139             	0               5.89        	                   	;
 131             	0               42.75       	                   	;
 129             	0               0           	                   	;
 127             	0               17.66       	                   	;
 125             	0               45.6        	                   	;
 123             	0               1           	                   	;
 121             	0               41.63       	                   	;
 120             	0               0           	                   	;
 119             	0               176.13      	                   	;
 117             	0               117.71      	                   	;
 115             	0               52.1        	                   	;
 113             	0               20.01       	                   	;
 111             	0               141.94      	                   	;
 109             	0               231.4       	                   	;
 107             	0               54.64       	                   	;
 JUNCTION-105    	0               135.37      	                   	;
 103             	0               133.2       	                   	;
 101             	0               189.95      	                   	;
;61              	0               0           	                   	;
 60              	0               0           	                   	;
 50              	0               0           	                   	;
 40              	0               0           	                   	;
 20              	0               0           	                   	;
 15              	0               1           	                   	;
; 10              	0               0           	                	;
 305-A           	0               0           	                	;
; 305-B           	0               0           	                	;

[RESERVOIRS]
;ID              	Head        	Pattern         
 River           	220         	                	;
 Lake            	167         	                	;

[TANKS]
;ID              	Elevation   	InitLevel   	MinLevel    	MaxLevel    	Diameter    	MinVol      	VolCurve
; 3               	129         	29          	4           	35.5        	164         	84496.2760109511	                	;
; 2               	116.5       	23.5        	6.5         	40.3        	50          	12762.7201552085	                	;
; 1               	131.9       	13.1        	0.0999999999999943	32.1        	85          	567.450173054656	                	;

[PIPES]
;ID              	Node1           	Node2           	Length      	Diameter    	Roughness   	MinorLoss   	Status
 204             	184             	205             	4530        	1000          	130         	0           	Open  	;
 203             	183             	185             	510         	1000          	130         	0           	Open  	;
 202             	185             	184             	99.9        	1000          	130         	0           	Open  	;
 201             	40              	179             	1190        	1000          	130         	0           	Open  	;
 199             	179             	183             	210         	1000          	130         	0           	Open  	;
 191             	271             	171             	760         	1000          	130         	0           	Open  	;
 189             	171             	173             	500         	1000          	141         	0           	Open  	;
 187             	169             	171             	1270        	1000          	141         	0           	Open  	;
 186             	187             	204             	99.9        	1000          	130         	0           	Open  	;
 185             	167             	169             	300         	1000          	130         	0           	Open  	;
 183             	265             	169             	590         	1000          	141         	0           	Open  	;
 181             	164             	166             	490         	1000          	130         	0           	Open  	;
 180             	163             	164             	150         	1000          	130         	0           	Open  	;
 179             	161             	163             	430         	1000          	141         	0           	Open  	;
 177             	159             	161             	2000        	1000          	141         	0           	Open  	;
 175             	157             	159             	2910        	1000          	141         	0           	Open  	;
 173             	119             	157             	2080        	1000          	141         	0           	Open  	;
 169             	125             	153             	4560        	1000          	130         	0           	Open  	;
 163             	151             	153             	1170        	1000          	130         	0           	Open  	;
 161             	149             	151             	1020        	1000          	130         	0           	Open  	;
 159             	147             	149             	880         	1000          	130         	0           	Open  	;
 155             	147             	145             	2200        	1000          	130         	0           	Open  	;
 153             	145             	141             	3510        	1000          	130         	0           	Open  	;
 151             	15              	143             	1650        	1000          	130         	0           	Open  	;
 149             	143             	141             	1400        	1000          	130         	0           	Open  	;
 147             	139             	141             	2050        	1000          	130         	0           	Open  	;
 145             	129             	139             	2750        	1000          	130         	0           	Open  	;
 137             	129             	131             	6480        	1000          	130         	0           	Open  	;
 135             	127             	129             	900         	1000          	130         	0           	Open  	;
 133             	20              	127             	785         	1000          	130         	0           	Open  	;
 131             	125             	127             	3240        	1000          	130         	0           	Open  	;
 129             	121             	125             	930         	1000          	130         	0           	Open  	;
 125             	123             	121             	1500        	1000          	141         	0           	Open  	;
 123             	121             	119             	2000        	1000          	141         	0           	Open  	;
 122             	121             	120             	2050        	1000          	130         	0           	Open  	;
 121             	120             	117             	1870        	1000          	130         	0           	Open  	;
 120             	119             	120             	730         	1000          	130         	0           	Open  	;
 119             	115             	117             	2180        	1000          	130         	0           	Open  	;
 117             	263             	JUNCTION-105    	2725        	1000          	130         	0           	Open  	;
 116             	113             	193             	1660        	1000          	130         	0           	Open  	;
 115             	107             	115             	1950        	1000          	130         	0           	Open  	;
 114             	115             	113             	2000        	1000          	130         	0           	Open  	;
 113             	111             	113             	1680        	1000          	130         	0           	Open  	;
 112             	115             	111             	1160        	1000          	130         	0           	Open  	;
 111             	109             	111             	2000        	1000          	130         	0           	Open  	;
 PIPE-109        	103             	109             	3940        	1000          	130         	0           	Open  	;
 107             	JUNCTION-105    	107             	1470        	1000          	130         	0           	Open  	;
 105             	101             	JUNCTION-105    	2540        	1000          	130         	0           	Open  	;
 103             	101             	103             	1350        	1000          	130         	0           	Open  	;
 101             	Lake              	101             	14200       	1000          	110         	0           	Open  	;
 60              	River           	60              	1231        	1000          	140         	0           	Open  	;
; 50              	2               	50              	99          	1000          	199         	0           	Open  	;
; 40              	1               	40              	99          	1000          	199         	0           	Open  	;
; 20              	3               	20              	99          	1000          	199         	0           	Open  	;
 329             	60              	123             	45500       	1000          	140         	0           	Open  	;
 325             	269             	271             	1290        	1000          	130         	0           	Open  	;
 323             	201             	275             	300         	1000          	130         	0           	Open  	;
 321             	163             	265             	1200        	1000          	141         	0           	Open  	;
 319             	273             	205             	645         	1000          	130         	0           	Open  	;
 317             	273             	275             	2230        	1000          	130         	0           	Open  	;
 315             	181             	271             	290         	1000          	130         	0           	Open  	;
 313             	269             	189             	646         	1000          	130         	0           	Open  	;
 311             	193             	267             	1170        	1000          	130         	0           	Open  	;
 309             	265             	267             	1580        	1000          	130         	0           	Open  	;
 307             	261             	263             	350         	1000          	130         	0           	Open  	;
 305             	117             	261             	645         	1000          	130         	0           	Open  	;
 303             	257             	261             	1400        	1000          	130         	0           	Open  	;
 301             	259             	263             	1400        	1000          	130         	0           	Open  	;
 299             	257             	259             	350         	1000          	130         	0           	Open  	;
 297             	120             	257             	645         	1000          	130         	0           	Open  	;
 295             	249             	251             	1450        	1000          	130         	0           	Open  	;
 293             	255             	251             	1100        	1000          	130         	0           	Open  	;
 291             	255             	253             	1100        	1000          	130         	0           	Open  	;
 289             	50              	255             	925         	1000          	130         	0           	Open  	;
 287             	247             	255             	1390        	1000          	130         	0           	Open  	;
 285             	247             	249             	100         	1000          	130         	0           	Open  	;
 283             	239             	249             	430         	1000          	130         	0           	Open  	;
 281             	241             	247             	445         	1000          	130         	0           	Open  	;
 277             	241             	243             	2200        	1000          	130         	0           	Open  	;
 275             	239             	241             	350         	1000          	130         	0           	Open  	;
 273             	237             	239             	510         	1000          	130         	0           	Open  	;
 271             	237             	229             	790         	1000          	130         	0           	Open  	;
 269             	211             	237             	2080        	1000          	130         	0           	Open  	;
 263             	229             	231             	1960        	1000          	130         	0           	Open  	;
 261             	213             	229             	2200        	1000          	130         	0           	Open  	;
 257             	217             	225             	1560        	1000          	130         	0           	Open  	;
 251             	217             	219             	2050        	1000          	130         	0           	Open  	;
 249             	215             	217             	1660        	1000          	130         	0           	Open  	;
 247             	213             	215             	4285        	1000          	130         	0           	Open  	;
 245             	211             	213             	990         	1000          	130         	0           	Open  	;
 243             	209             	211             	1210        	1000          	130         	0           	Open  	;
 241             	208             	209             	885         	1000          	130         	0           	Open  	;
 240             	206             	208             	510         	1000          	130         	0           	Open  	;
 239             	275             	207             	1430        	1000          	130         	0           	Open  	;
 238             	207             	206             	450         	1000          	130         	0           	Open  	;
 237             	205             	207             	1200        	1000          	130         	0           	Open  	;
 235             	199             	273             	725         	1000          	130         	0           	Open  	;
 233             	201             	203             	120         	1000          	130         	0           	Open  	;
 231             	199             	201             	630         	1000          	141         	0           	Open  	;
 229             	173             	199             	4000        	1000          	141         	0           	Open  	;
 225             	111             	197             	2790        	1000          	130         	0           	Open  	;
 223             	197             	191             	1150        	1000          	130         	0           	Open  	;
 221             	161             	195             	2300        	1000          	130         	0           	Open  	;
 219             	193             	195             	360         	1000          	130         	0           	Open  	;
 217             	191             	193             	520         	1000          	130         	0           	Open  	;
 215             	267             	189             	1230        	1000          	130         	0           	Open  	;
 213             	191             	187             	2560        	1000          	130         	0           	Open  	;
 211             	169             	269             	646         	1000          	130         	0           	Open  	;
 209             	189             	187             	500         	1000          	130         	0           	Open  	;
 207             	189             	183             	1350        	1000          	130         	0           	Open  	;
 205             	204             	185             	1325        	1000          	130         	0           	Open  	;
 P-1             	119             	305-A           	1640        	1000          	130         	0           	Open  	;
; P-2             	305-B           	151             	1820        	1000          	130         	0           	Open  	;

[PUMPS]
;ID              	Node1           	Node2           	Parameters
; PUMP1           	60              	61              	HEAD 335	;
; PUMP2           	Lake            	10              	HEAD 10	;

[VALVES]
;ID              	Node1           	Node2           	Diameter    	Type	Setting     	MinorLoss   
; TCV-1           	305-A           	305-B           	6           	TCV 	0.2         	0           	;

[TAGS]

[DEMANDS]
;Junction        	Demand      	Pattern         	Category

[STATUS]
;ID              	Status/Setting
; TCV-1           	Open

[PATTERNS]
;ID              	Multipliers
;
; 1               	1.34        	1.94        	1.46        	1.44        	0.76        	0.92        
; 1               	0.85        	1.07        	0.96        	1.1         	1.08        	1.19        
; 1               	1.16        	1.08        	0.96        	0.83        	0.79        	0.74        
; 1               	0.64        	0.64        	0.85        	0.96        	1.24        	1.67        
;;
; 2               	0           	0           	0           	0           	0           	1219        
; 2               	0           	0           	0           	1866        	1836        	1818        
; 2               	1818        	1822        	1822        	1817        	1824        	1816        
; 2               	1833        	1817        	1830        	1814        	1840        	1859        
;;
; 3               	620         	620         	620         	620         	620         	360         
; 3               	360         	0           	0           	0           	0           	360         
; 3               	360         	360         	360         	360         	0           	0           
; 3               	0           	0           	0           	0           	360         	360         
;;
; 4               	1637        	1706        	1719        	1719        	1791        	1819        
; 4               	1777        	1842        	1815        	1825        	1856        	1801        
; 4               	1819        	1733        	1664        	1620        	1613        	1620        
; 4               	1616        	1647        	1627        	1627        	1671        	1668        
;;
; 5               	4439        	4531        	4511        	4582        	4531        	4582        
; 5               	4572        	4613        	4643        	4643        	4592        	4613        
; 5               	4531        	4521        	4449        	4439        	4449        	4460        
; 5               	4439        	4419        	4368        	4399        	4470        	4480        
;;
 ValveClosure    	1           

[CURVES]
;ID              	X-Value     	Y-Value
;;PUMP: PUMP: PUMP: PUMP: PUMP:
; 335             	0           	200         
; 335             	8000        	138         
; 335             	14000       	86          
;;PUMP: PUMP: PUMP: PUMP: EFFICIENCY:
; 335E            	0           	75          
; 335E            	8000        	75          
; 335E            	14000       	75          
;;PUMP: PUMP: PUMP: PUMP: PUMP:
; 10              	0           	104         
; 10              	2000        	92          
; 10              	4000        	63          
;;PUMP: PUMP: PUMP: PUMP: EFFICIENCY:
; 10E             	0           	75          
; 10E             	2000        	75          
; 10E             	4000        	75          

[CONTROLS]




[RULES]




[ENERGY]
 Global Efficiency  	75
 Global Price       	0
 Demand Charge      	0

[EMITTERS]
;Junction        	Coefficient

[QUALITY]
;Node            	InitQual

[SOURCES]
;Node            	Type        	Quality     	Pattern

[REACTIONS]
;Type     	Pipe/Tank       	Coefficient


[REACTIONS]
 Order Bulk            	1
 Order Tank            	1
 Order Wall            	1
 Global Bulk           	0
 Global Wall           	0
 Limiting Potential    	0
 Roughness Correlation 	0

[MIXING]
;Tank            	Model

[TIMES]
 Duration           	24:00 
 Hydraulic Timestep 	1:00 
 Quality Timestep   	0:05 
 Pattern Timestep   	1:00 
 Pattern Start      	0:00 
 Report Timestep    	1:00 
 Report Start       	0:00 
 Start ClockTime    	12 am
 Statistic          	NONE

[REPORT]
 Status             	No
 Summary            	No
 Page               	0

[OPTIONS]
 Units              	LPS
 Headloss           	H-W
 Specific Gravity   	1
 Viscosity          	1
 Trials             	40
 Accuracy           	0.001
 CHECKFREQ          	2
 MAXCHECK           	10
 DAMPLIMIT          	0
 Unbalanced         	Continue 10
 Pattern            	1
 Demand Multiplier  	1.0
 Emitter Exponent   	0.5
 Quality            	None mg/L
 Diffusivity        	1
 Tolerance          	0.01

[COORDINATES]
;Node            	X-Coord         	Y-Coord
 275             	31.07           	8.29            
 273             	29.16           	7.38            
 271             	26.14           	11.17           
 269             	25.03           	12.14           
 267             	23.38           	12.95           
 265             	25.39           	13.60           
 263             	20.32           	21.57           
 261             	20.79           	21.45           
 259             	20.80           	23.40           
 257             	21.17           	23.32           
 255             	33.51           	2.45            
 253             	32.17           	1.88            
 251             	34.15           	1.10            
 249             	35.02           	1.81            
 247             	35.02           	2.05            
 243             	37.04           	0.00            
 241             	35.87           	2.11            
 239             	35.76           	2.31            
 237             	35.37           	3.08            
 231             	38.38           	2.54            
 229             	36.16           	3.49            
 225             	43.53           	7.38            
 219             	44.86           	9.32            
 217             	42.11           	8.67            
 215             	39.95           	8.73            
 213             	35.26           	6.16            
 211             	34.20           	5.54            
 209             	33.76           	6.59            
 208             	32.54           	6.81            
 207             	31.00           	6.61            
 206             	31.66           	6.64            
 205             	29.20           	6.46            
 204             	23.81           	10.69           
 203             	31.14           	8.89            
 201             	30.89           	8.57            
 199             	29.42           	8.44            
 197             	20.97           	15.18           
 195             	23.18           	14.72           
 193             	22.88           	14.35           
 191             	22.10           	14.07           
 189             	24.15           	11.37           
 187             	23.64           	11.04           
 185             	24.79           	9.80            
 184             	25.15           	9.52            
 183             	25.29           	10.04           
 181             	25.72           	10.83           
 179             	25.86           	10.38           
 173             	26.87           	11.59           
 171             	26.65           	11.80           
 169             	25.68           	12.74           
 167             	25.88           	12.98           
 166             	26.48           	15.13           
 164             	25.98           	15.14           
 163             	25.39           	14.98           
 161             	25.10           	15.28           
 159             	23.12           	17.50           
 157             	24.85           	20.16           
 153             	28.13           	22.63           
 151             	28.29           	21.39           
 149             	29.62           	20.74           
 147             	30.24           	20.38           
 145             	33.02           	19.29           
 143             	37.47           	21.97           
 141             	35.68           	23.08           
 139             	33.28           	24.54           
 131             	37.89           	29.55           
 129             	30.32           	26.39           
 127             	29.29           	26.40           
 125             	24.59           	25.64           
 123             	23.37           	27.31           
 121             	23.54           	25.50           
 120             	22.08           	23.10           
 119             	23.70           	22.76           
 117             	21.67           	21.29           
 115             	20.98           	19.18           
 113             	22.04           	16.61           
 111             	20.21           	17.53           
 109             	17.64           	18.92           
 107             	18.45           	20.46           
 JUNCTION-105    	16.97           	21.28           
 103             	12.96           	21.31           
 101             	13.81           	22.94           
; 61              	23.70           	29.03           
 60              	23.90           	29.94           
 50              	33.01           	3.01            
 40              	27.02           	9.81            
 20              	29.44           	26.91           
 15              	38.68           	23.76           
; 10              	9.00            	27.85           
 305-A           	25.08           	22.31           
; 305-B           	25.82           	22.10           
 River           	24.15           	31.06           
 Lake            	8.00            	27.53           
; 3               	29.41           	27.27           
; 2               	32.99           	3.45            
; 1               	27.46           	9.84            

[VERTICES]
;Link            	X-Coord         	Y-Coord
; PUMP1           	23.81           	29.49           
; PUMP2           	8.50            	27.69           

[LABELS]
;X-Coord           Y-Coord          Label & Anchor Node